<routes>
	<vType id="car_1" length="4.754264" width="1.596668" accel="2.6" decel="4.5" 
	apparentDecel="4.5" emergencyDecel="4.5" sigma="0.5" tau="3" minGap="5" 
	  color="24,0,255,255" vClass="passenger" guiShape="passenger" impatience="0" 
	  laneChangeModel="SL2015" carFollowModel="Krauss" 
	speedFactor="normc(1,0.030864,0.55555555,1.0)" latAlignment="center" 
	minGapLat="0.1" maxSpeedLat="1" lcSpeedGain="10" lcAssertive="0.2"/>
	
	<vType id="car_2" length="4.173896" width="1.77515" accel="2.6" decel="4.5" 
	apparentDecel="4.5"  emergencyDecel="4.5" sigma="0.5" tau="3" minGap="5" 
	 speedFactor="normc(1,0.030864,0.55555555,1.0)" color="62,62,62,235" 
	 vClass="passenger" guiShape="passenger" impatience="0" laneChangeModel="SL2015"
	 carFollowModel="Krauss" 
	latAlignment="center" minGapLat="0.1" maxSpeedLat="1" lcAssertive="0.2"/>
	
	<vType id="car_3" length="4.173896" width="1.77515" accel="2.6" decel="4.5" 
	apparentDecel="4.5"  emergencyDecel="4.5" sigma="0.5" tau="3" minGap="5" 
	 speedFactor="normc(1,0.030864,0.55555555,1.0)" 
	 color="255,255,255,186" vClass="passenger" guiShape="passenger" impatience="0" 
	 laneChangeModel="SL2015" carFollowModel="Krauss" 
	latAlignment="center" minGapLat="0.1" maxSpeedLat="1" lcAssertive="0.2"/>
	
	<vType id="truck_1" length="6.174" width="2.166908" accel="2" decel="4.5" 
	apparentDecel="4"  emergencyDecel="4.5" sigma="0.5" tau="3" minGap="5" 
	 speedFactor="normc(1,0.030864,0.55555555,1.0)" color="255,0,0,255" 
	 vClass="passenger" guiShape="truck" impatience="0" laneChangeModel="SL2015" 
	 carFollowModel="Krauss" 
	latAlignment="center" minGapLat="0.1" maxSpeedLat="1" lcAssertive="0.2"/>
	
	<vType id="self_car" length="4.5" width="1.8" accel="3.5" decel="2.2" sigma="1.0" guiShape="passenger/wagon" color="1,0,1" maxSpeed="30"/>

	<route id="self_route" edges="-gneE18"/>

	<flow id="carflow_1" type="car_1" begin="0.0" end="86400.0"	from="-gneE18" to="-gneE18"	departLane="free" departSpeed="max"	probability="0.0972222"/>
	<flow id="carflow_2" type="car_2" begin="0.0" end="86400.0"	from="-gneE18" to="-gneE18"	departLane="free" departSpeed="max"	probability="0.0972222"/>
	<flow id="carflow_3" type="car_3" begin="0.0" end="86400.0"	from="-gneE18" to="-gneE18"	departLane="free" departSpeed="max"	probability="0.0972222"/>
	<flow id="carflow_4" type="truck_1" begin="0.0" end="86400.0"	from="-gneE18" to="-gneE18"	departLane="free" departSpeed="max"	probability="0.0972222"/>
</routes>