<routes>
	<vType id="car_1" length="4.754264" width="1.596668" accel="2.6" decel="4.5" apparentDecel="4.5" emergencyDecel="4.5" sigma="0.5" tau="2.5" minGap="1" 
	  color="24,0,255,255" vClass="passenger" guiShape="passenger" impatience="0" laneChangeModel="SL2015" carFollowModel="Krauss" 
	speedFactor="normc(0.9166666,0.02777777,0.833333,1.00)" latAlignment="center" minGapLat="0.1" maxSpeedLat="1" lcSpeedGain="10"/>
	
	<vType id="car_2" length="4.173896" width="1.77515" accel="2.6" decel="4.5" apparentDecel="4.5"  emergencyDecel="4.5" sigma="0.5" tau="2.5" minGap="1" 
	 speedFactor="normc(0.9166666,0.02777777,0.833333,1.00)" color="62,62,62,235" vClass="passenger" guiShape="passenger" impatience="0" laneChangeModel="SL2015" carFollowModel="Krauss" 
	latAlignment="center" minGapLat="0.1" maxSpeedLat="1"/>
	
	<vType id="car_3" length="4.173896" width="1.77515" accel="2.6" decel="4.5" apparentDecel="4.5"  emergencyDecel="4.5" sigma="0.5" tau="2.5" minGap="1" 
	 speedFactor="normc(0.9166666,0.02777777,0.833333,1.00)" color="255,255,255,186" vClass="passenger" guiShape="passenger" impatience="0" laneChangeModel="SL2015" carFollowModel="Krauss" 
	latAlignment="center" minGapLat="0.1" maxSpeedLat="1"/>
	
	<vType id="truck_1" length="6.174" width="2.166908" accel="2" decel="4.5" apparentDecel="4"  emergencyDecel="4.5" sigma="0.5" tau="2.5" minGap="1.5" 
	 speedFactor="normc(0.8,0.0666666,0.6,1.00)" color="255,0,0,255" vClass="passenger" guiShape="truck" impatience="0" laneChangeModel="SL2015" carFollowModel="Krauss" 
	latAlignment="center" minGapLat="0.1" maxSpeedLat="1"/>
	
	<vType id="self_car" length="4.5" width="1.8" accel="3.5" decel="2.2" sigma="1.0" guiShape="passenger/wagon" color="1,0,1" maxSpeed="30"/>

	<route id="self_route" edges="-gneE18" />
	
</routes>