<?xml version="1.0" encoding="UTF-8"?>

<!-- generated on 06/19/19 17:00:11 by Eclipse SUMO netedit Version 1.0.0
<configuration xmlns:xsi="http://www.w3.org/2001/XMLSchema-instance" xsi:noNamespaceSchemaLocation="http://sumo.dlr.de/xsd/netconvertConfiguration.xsd">

    <input>
        <sumo-net-file value="E:\LasVSim%20Program\LasVSim-gui\LasVSim-gui%200.2.1.190616_alpha\Map\Map2_Highway\grid-map.net.xml"/>
    </input>

    <output>
        <output-file value="E:\LasVSim%20Program\LasVSim-gui\LasVSim-gui%200.2.1.190616_alpha\Map\Map2_Highway\grid-map.net.xml"/>
    </output>

    <processing>
        <offset.disable-normalization value="true"/>
        <lefthand value="false"/>
    </processing>

    <junctions>
        <no-turnarounds value="true"/>
        <junctions.corner-detail value="0"/>
        <junctions.limit-turn-speed value="-1"/>
        <rectangular-lane-cut value="false"/>
    </junctions>

    <pedestrian>
        <walkingareas value="false"/>
    </pedestrian>

</configuration>
-->

<additional xmlns:xsi="http://www.w3.org/2001/XMLSchema-instance" xsi:noNamespaceSchemaLocation="http://sumo.dlr.de/xsd/additional_file.xsd">

    <rerouter id="rerouter_1" edges="-gneE18" pos="0,0">
        <interval begin="0.00" end="36000000.00">
            <destProbReroute id="-gneE18.195"/>
        </interval>
    </rerouter>

    <rerouter id="rerouter_2" edges="-gneE18.195" pos="163.81,0.00">
        <interval begin="0.00" end="36000000.00">
            <destProbReroute id="-gneE18.277"/>
        </interval>
    </rerouter>

    <rerouter id="rerouter_2" edges="-gneE18.277" pos="942.91,0">
        <interval begin="0.00" end="36000000.00">
            <destProbReroute id="-gneE18.460"/>
<!--            <destProbReroute id="gneE0"  probability="0.1"/>-->
        </interval>
    </rerouter>

<!--    <rerouter id="rerouter_3" edges="gneE22" pos="942.91,-10.79">-->
<!--        <interval begin="0.00" end="36000000.00">-->
<!--            <destProbReroute id="-gneE18.74"/>-->
<!--        </interval>-->
<!--    </rerouter>-->
</additional>
